auto3mg/circuit_plusmg_0.dss
clear
set defaultbasefrequency=60
new object=circuit.lehigh basekv=115 pu=1.0001 phases=3 bus1=sourcebus angle=30 mvasc3=20000 mvasc1=21000
edit object=vsource.source basekv=115 bus1=sourcebus.1.2.3 pu=1.00 r1=0 x1=0.0001 r0=0 x0=0.0001
new object=vsource.secondsource basekv=4.16 bus1=680.1.2.3 pu=1.00 r1=0 x1=0.0001 r0=0 x0=0.0001
new object=transformer.sub phases=3 windings=2 xhl=0.008 buses=[sourcebus.1.2.3,650.1.2.3] conns=[delta,wye] kvs=[115,4.16] kvas=[5000,5000] %rs=[0.0005,0.0005]
new object=transformer.reg1 phases=1 bank=reg1 xhl=0.01 kvas=[1666,1666] buses=[650.1,rg60.1] kvs=[2.4,2.4] %loadloss=0.01
new object=regcontrol.reg1 transformer=reg1 winding=2 vreg=121 band=2 ptratio=20 ctprim=700 r=3 x=9
new object=transformer.reg2 phases=1 bank=reg1 xhl=0.01 kvas=[1666,1666] buses=[650.2,rg60.2] kvs=[2.4,2.4] %loadloss=0.01
new object=regcontrol.reg2 transformer=reg2 winding=2 vreg=121 band=2 ptratio=20 ctprim=700 r=3 x=9
new object=transformer.reg3 phases=1 bank=reg1 xhl=0.01 kvas=[1666,1666] buses=[650.3,rg60.3] kvs=[2.4,2.4] %loadloss=0.01
new object=regcontrol.reg3 transformer=reg3 winding=2 vreg=121 band=2 ptratio=20 ctprim=700 r=3 x=9
new object=transformer.xfm1 phases=3 windings=2 xhl=2 buses=[633.1.2.3,634.1.2.3] conns=[wye,wye] kvs=[4.16,0.480] kvas=[500,500] %rs=[0.55,0.55] xht=1 xlt=1
new object=linecode.mtx601 nphases=3 basefreq=60 rmatrix=[0.3465|0.1560,0.3375|0.1580,0.1535,0.3414] xmatrix=[1.0179|0.5017,1.0478|0.4236,0.3849,1.0348] units=mi
new object=linecode.mtx602 nphases=3 basefreq=60 rmatrix=[0.7526|0.1580,0.7475|0.1560,0.1535,0.7436] xmatrix=[1.1814|0.4236,1.1983|0.5017,0.3849,1.2112] units=mi
new object=linecode.mtx603 nphases=2 basefreq=60 rmatrix=[1.3238|0.2066,1.3294] xmatrix=[1.3569|0.4591,1.3471] units=mi
new object=linecode.mtx604 nphases=2 basefreq=60 rmatrix=[1.3238|0.2066,1.3294] xmatrix=[1.3569|0.4591,1.3471] units=mi
new object=linecode.mtx605 nphases=1 basefreq=60 rmatrix=[1.3292] xmatrix=[1.3475] units=mi
new object=linecode.mtx606 nphases=3 units=mi rmatrix=[0.791721|0.318476,0.781649|0.28345,0.318476,0.791721] xmatrix=[0.438352|0.0276838,0.396697|-0.0184204,0.0276838,0.438352] cmatrix=[383.948|0,383.948|0,0,383.948]
new object=linecode.mtx607 nphases=1 basefreq=60 rmatrix=[1.3425] xmatrix=[0.5124] cmatrix=[236] units=mi
new object=loadshape.solar_633_shape npts=8760 interval=1 useactual=yes mult=[0.0,0.0,0.0,0.0,0.0,0.0,0.0,0.0,3.946519199354997,11.965358571557408,16.89061799079845,51.90306075076792,11.902241931935784,27.81411970284819,41.61072543493444,44.79941265307908,22.38392716663413,1.4836733368590589,0.0,0.0,0.0,0.0,0.0,0.0,0.0,0.0,0.0,0.0,0.0,0.0,0.0,0.0,10.355451955455097,26.29888804617832,36.812131600687486,1.4521150170482453,79.02246511202736,28.256368485950407,102.60647304297407,70.56137695672274,37.25394807803886,3.188687218144644,0.0,0.0,0.0,0.0,0.0,0.0,0.0,0.0,0.0,0.0,0.0,0.0,0.0,0.0,30.371640524776566,70.81427582096009,94.08183594229698,39.874585539588864,70.90895078039252,70.71960086152762,57.77506976433335,50.16648854967151,26.330446365989125,2.083713719015345,0.0,0.0,0.0,0.0,0.0,0.0,0.0,0.0,0.0,0.0,0.0,0.0,0.0,0.0,46.22040165606735,105.88983522055116,147.38643193726566,157.90616007803732,155.4342357947739,156.40043914788578,123.5529835880883,93.47401405662568,67.49935532357219,13.259681989551588,0.0,0.0,0.0,0.0,0.0,0.0,0.0,0.0,0.0,0.0,0.0,0.0,0.0,0.0,50.26116350910395,112.1409763775972,157.79289597131904,169.8918370198839,168.17471857757496,169.64542274190904,153.42012330164266,107.29958427401776,68.13052171978845,12.944098791443457,0.0,0.0,0.0,0.0,0.0,0.0,0.0,0.0,0.0,0.0,0.0,0.0,0.0,0.0,39.71636163478397,94.050709928237,147.43701171011313,132.12517432135704,149.3629338300744,154.06728501063975,154.66732539279604,117.34982836938474,63.52127780440637,11.870683612124967,0.0,0.0,0.0,0.0,0.0,0.0,0.0,0.0,0.0,0.0,0.0,0.0,0.0,0.0,40.31640201694025,40.032377138642936,143.04910833915758,164.07516314242508,146.93251089889094,140.68136974184492,118.5814674535081,60.61661546455905,32.013105460689694,3.4095954568203366,0.0,0.0,0.0,0.0,0.0,0.0,0.0,0.0,0.0,0.0,0.0,0.0,0.0,0.0,41.04267567833979,95.69217486415012,25.25703118667064,33.27587055887306,74.47633783626691,86.28390480877027,70.68804254171683,45.809711192775936,24.30984928659541,2.809987380414884,0.0,0.0,0.0,0.0,0.0,0.0,0.0,0.0,0.0,0.0,0.0,0.0,0.0,0.0,42.179207497279904,96.82870668309025,51.90306075076792,110.4044041765008,86.47325472763512,40.379518656561885,51.776827471524655,43.315739316220025,22.44704380625576,10.607918513941604,0.0,0.0,0.0,0.0,0.0,0.0,0.0,0.0,0.0,0.0,0.0,0.0,0.0,0.0,19.54238146640844,48.30368306933185,77.82281665346562,133.3883717252912,77.41255849592505,101.09080908055336,102.66958968259569,82.8427510321391,46.22040165606735,8.113946637385686,0.0,0.0,0.0,0.0,0.0,0.0,0.0,0.0,0.0,0.0,0.0,0.0,0.0,0.0,50.89276221107105,112.6459094945702,157.36188713773848,164.39117864628406,163.06529690847907,165.83075679655812,138.07153992406575,104.44334017826375,77.00230033838449,18.9743317098138,0.0,0.0,0.0,0.0,0.0,0.0,0.0,0.0,0.0,0.0,0.0,0.0,0.0,0.0,47.00935965133768,106.77390048100476,147.21221271967994,154.82598160335178,149.35947538406774,149.1446194259037,116.11127239324802,85.40978258058583,75.20261149766645,18.69030683151648,0.0,0.0,0.0,0.0,0.0,0.0,0.0,0.0,0.0,0.0,0.0,0.0,0.0,0.0,45.99906111164081,105.57425202244302,143.85103550695288,137.14554100578133,151.67749882003463,138.43943211802468,124.92728356998656,99.67025238331594,59.13294212769999,14.30153884905926,0.0,0.0,0.0,0.0,0.0,0.0,0.0,0.0,0.0,0.0,0.0,0.0,0.0,0.0,19.16368162867868,45.39945303523536,82.27426896979364,104.87953668085429,120.1598157497996,110.27817089725754,65.22585937994111,53.102709209329646,29.960950061485164,4.893701099430229,0.0,0.0,0.0,0.0,0.0,0.0,0.0,0.0,0.0,0.0,0.0,0.0,0.0,0.0,10.10298539696859,27.119836667010293,125.96914042949425,144.30063348781928,153.7097681547008,155.32918549732145,151.81799818905537,90.54038723147256,73.15045609846193,18.500524606900765,0.0,0.0,0.0,0.0,0.0,0.0,0.0,0.0,0.0,0.0,0.0,0.0,0.0,0.0,41.83163367361013,97.20783882657084,135.76475643762052,115.96126229770891,136.2926017593877,156.44669586322493,107.24727527816697,48.99839841092058,27.43541986511843,4.956817739051855,0.0,0.0,0.0,0.0,0.0,0.0,0.0,0.0,0.0,0.0,0.0,0.0,0.0,0.0,43.25262267659839,104.0270297402115,151.85733801238118,168.71553307186713,167.5591151883887,170.28220911288614,156.10690354307013,103.15852748678788,76.59160987509307,19.95307192969984,0.0,0.0,0.0,0.0,0.0,0.0,0.0,0.0,0.0,0.0,0.0,0.0,0.0,0.0,47.230267890013366,106.39476833752418,153.94105173139653,168.79161888401376,166.71784819726756,168.1353787542492,156.93260752716125,103.03402343054796,77.94904993270889,20.584238325916107,0.0,0.0,0.0,0.0,0.0,0.0,0.0,0.0,0.0,0.0,0.0,0.0,0.0,0.0,49.81934703175256,111.69872759449495,156.65636415237896,170.95876761293988,170.68122732090504,171.75377788872188,154.19697673588968,105.47006633649228,81.89556913206387,22.44704380625576,0.0,0.0,0.0,0.0,0.0,0.0,0.0,0.0,0.0,0.0,0.0,0.0,0.0,0.0,48.90372345148814,109.0785224386958,152.5204950341591,170.88397871804577,170.8519880924841,172.68842292202297,162.8759469896142,110.47184387363076,77.82281665346562,20.931812149585888,0.0,0.0,0.0,0.0,0.0,0.0,0.0,0.0,0.0,0.0,0.0,0.0,0.0,0.0,12.596957273524508,31.53973066352749,47.76719163254803,27.27762826606436,79.08558175164899,21.089603748639952,22.00522732890437,0.3155831981081331,0.0,0.0,0.0,0.0,0.0,0.0,0.0,0.0,0.0,0.0,0.0,0.0,0.0,0.0,0.0,0.0,11.618217053638462,34.12837749951585,96.45000684536048,103.01673120051464,154.12953703875974,155.2120306388457,89.91484081001714,78.0121665723305,45.36789471542456,10.070994771406944,0.0,0.0,0.0,0.0,0.0,0.0,0.0,0.0,0.0,0.0,0.0,0.0,0.0,0.0,13.133448710308334,34.065260859894224,39.59012835554071,98.53372056437584,173.04031980320107,174.4431519646543,171.91805407403845,143.9962902392328,86.88394519092655,24.625432484703545,0.0,0.0,0.0,0.0,0.0,0.0,0.0,0.0,0.0,0.0,0.0,0.0,0.0,0.0,52.092410669632784,114.69806489377474,159.8446190647728,172.30929077854236,170.93542310239488,173.93648962467796,153.40239876585852,106.07961744516687,85.99987993047293,25.193914547049012,0.0,0.0,0.0,0.0,0.0,0.0,0.0,0.0,0.0,0.0,0.0,0.0,0.0,0.0,49.62999711288768,109.61544618123048,152.48850440859744,172.15409301399328,171.36989038198212,172.7783425181962,164.53556876706227,106.5862797851432,82.55872615384179,24.341407606406225,0.0,0.0,0.0,0.0,0.0,0.0,0.0,0.0,0.0,0.0,0.0,0.0,0.0,0.0,32.92872904095411,75.48663637596378,87.0101784701698,129.1578276476389,144.5963306213891,138.56609770301876,126.15849034835912,92.7875125243028,56.82832017000895,16.227460969020537,0.0,0.0,0.0,0.0,0.0,0.0,0.0,0.0,0.0,0.0,0.0,0.0,0.0,0.0,39.14831187818933,91.46163078649782,88.62008508627211,164.61208688495975,170.0383886694163,126.00026644355424,17.490226067203903,122.49642833305228,72.36106579744076,20.363330087240413,0.0,0.0,0.0,0.0,0.0,0.0,0.0,0.0,0.0,0.0,0.0,0.0,0.0,0.0,11.081293311103805,17.837799890873683,26.898496122583765,41.57916711512362,32.83405408152167,22.794185324174705,23.110200828033676,8.966021272277645,4.609243915382076,0.0946749594324399,0.0,0.0,0.0,0.0,0.0,0.0,0.0,0.0,0.0,0.0,0.0,0.0,0.0,0.0,52.15552730925441,108.59347538626112,123.58800035390576,133.0559286029006,140.6000962606883,127.86523345264804,78.62171768100512,77.74975698157483,80.84982152079871,27.30918658587517,0.0,0.0,0.0,0.0,0.0,0.0,0.0,0.0,0.0,0.0,0.0,0.0,0.0,0.0,49.53532215345524,109.52033891604718,153.2087257894853,162.2836881109729,159.39675030690972,159.8342437267528,126.60246835446468,97.6064247288389,71.76145772103531,27.119836667010293,0.0,0.0,0.0,0.0,0.0,0.0,0.0,0.0,0.0,0.0,0.0,0.0,0.0,0.0,15.470061293561017,47.45160843443989,80.79059563293458,81.76933585282062,105.19511987896244,99.3546691852078,89.6935002655906,64.53157634410323,39.59012835554071,11.365750495151955,0.0,0.0,0.0,0.0,0.0,0.0,0.0,0.0,0.0,0.0,0.0,0.0,0.0,0.0,52.1239689894436,114.57183161453148,158.49496051067194,165.18791814506935,162.42202595123945,163.04411392668823,129.29875932241046,98.09622714453276,89.47259202691491,29.86627510205272,0.0,0.0,0.0,0.0,0.0,0.0,0.0,0.0,0.0,0.0,0.0,0.0,0.0,0.0,52.31331890830848,111.5409359954409,154.73044203241767,167.68880691363862,164.92334702555954,165.68334053552405,144.3572655411784,100.9684665530676,89.4410337071041,30.43475716439819,0.0,0.0,0.0,0.0,0.0,0.0,0.0,0.0,0.0,0.0,0.0,0.0,0.0,0.0,51.93461907057872,45.051879211565584,105.66849467612462,131.30422570052502,149.83674093298745,146.77428699408603,126.44251522665644,36.21209121853119,26.172654766935064,17.269317828528212,0.0,0.0,0.0,0.0,0.0,0.0,0.0,0.0,0.0,0.0,0.0,0.0,0.0,0.0,0.0,40.127052098075374,108.1944571782422,151.7311047331379,161.00233386550372,162.26553126943787,161.17050080257775,145.14752045370125,92.88218748373524,32.6762624824676,0.0,0.0,0.0,0.0,0.0,0.0,0.0,0.0,0.0,0.0,0.0,0.0,0.0,0.0,37.50641463652537,100.01739390123488,131.9682473338046,139.54916098041315,147.2623601867766,146.50798665157288,87.34867387307209,80.77935568341292,55.94425490955534,27.21451162644273,0.0,0.0,0.0,0.0,0.0,0.0,0.0,0.0,0.0,0.0,0.0,0.0,0.0,0.0,27.59321146417249,36.62234937607177,27.59321146417249,41.57916711512362,27.53009482455087,114.95053145226126,104.6901867619894,75.99200179868762,26.393563005610755,3.63050369549603,0.0,0.0,0.0,0.0,0.0,0.0,0.0,0.0,0.0,0.0,0.0,0.0,0.0,0.0,2.052155399204532,13.259681989551588,20.74246223072101,74.22387127778042,89.34635874767166,41.61072543493444,60.2694739466401,26.267329726367503,15.94343609072322,30.024066701106783,0.0,0.0,0.0,0.0,0.0,0.0,0.0,0.0,0.0,0.0,0.0,0.0,0.0,0.0,13.07033207068671,12.439165674470445,48.24056642971023,94.4925264055884,86.66303695225085,108.4153654169179,118.48636018832484,142.89131674010352,92.37725436676224,33.1496372796298,0.0,0.0,0.0,0.0,0.0,0.0,0.0,0.0,0.0,0.0,0.0,0.0,0.0,0.0,10.481685234698348,26.61447124428645,49.78778871194175,158.2796722467571,69.58306904258752,69.20393689910692,78.54909031486517,59.10138380788917,1.4521150170482453,30.813457002127954,0.0,0.0,0.0,0.0,0.0,0.0,0.0,0.0,0.0,0.0,0.0,0.0,0.0,0.0,16.7643847115552,74.50789615607772,146.74921326053774,155.96813339705272,151.6960879673204,151.02558174777835,136.25110040730775,86.35696448066105,89.604445280919,36.4645577770177,0.0,0.0,0.0,0.0,0.0,0.0,0.0,0.0,0.0,0.0,0.0,0.0,0.0,5.335517576781615,61.46912240520184,122.68577825191716,146.84259130271766,155.83368630854363,150.6486111330519,148.76246114216727,87.51900233890031,86.32929691260773,89.98919739916042,38.32736325735736,0.0,0.0,0.0,0.0,0.0,0.0,0.0,0.0,0.0,0.0,0.0,0.0,0.0,5.430192536214055,59.2587431011924,106.18423543686848,121.4571653080496,131.75425598714224,140.2196671999552,118.71202379025968,78.15266594135126,77.21672399079769,80.80183558245623,37.15927311860643,0.0,0.0,0.0,0.0,0.0,0.0,0.0,0.0,0.0,0.0,0.0,0.0,0.0,6.850749233451487,62.29007102603381,122.71733657172798,154.0940879671914,164.14692589706337,161.30883864284434,160.9932554447362,114.9695529052979,96.12620983798652,95.96279826417162,21.026487109018326,0.0,0.0,0.0,0.0,0.0,0.0,0.0,0.0,0.0,0.0,0.0,0.0,0.0,0.1262332792432532,34.602184602428885,79.21224733664309,111.95119415298149,127.45281376635332,150.43634900939287,159.2134526685565,105.88983522055116,93.13508634797256,66.0152496809623,22.38392716663413,0.0,0.0,0.0,0.0,0.0,0.0,0.0,0.0,0.0,0.0,0.0,0.0,0.0,1.515231656669872,55.75490499069046,111.79383485967824,156.6559318466281,168.83052640158874,166.05425886973882,167.39397439157045,149.2725819281503,102.95793761840136,90.73535712509828,35.07555939959108,0.0,0.0,0.0,0.0,0.0,0.0,0.0,0.0,0.0,0.0,0.0,0.0,0.0,0.0,8.303296556250565,11.776008652692528,37.348623037471306,52.25020226868685,55.72291436512881,67.46779700376136,42.96816549255025,37.28550639784968,39.68480331497316,14.74378763216148,0.0,0.0,0.0,0.0,0.0,0.0,0.0,0.0,0.0,0.0,0.0,0.0,0.0,0.0,0.915623580264419,40.72666017448083,72.4557407568732,93.79781106399966,141.84945988059584,162.08655668859302,126.82121506438622,156.87727239105465,59.19605876732162,20.26865512780797,0.0,0.0,0.0,0.0,0.0,0.0,0.0,0.0,0.0,0.0,0.0,0.0,0.0,6.661399314586608,20.67891328534855,44.57850441440339,78.58064863467598,108.76250693483684,170.84550350622163,173.88893599208637,171.57566791937865,152.07824625105684,102.60647304297407,41.38981719625875,0.0,0.0,0.0,0.0,0.0,0.0,0.0,0.0,0.0,0.0,0.0,0.0,0.0,8.52420479492626,63.23725292610905,122.30664610843657,139.25389615259417,145.9148631614299,155.47789867560803,145.43716530675945,94.4432435499934,93.24445970293334,95.0065379433289,40.284843697129446,0.0,0.0,0.0,0.0,0.0,0.0,0.0,0.0,0.0,0.0,0.0,0.0,0.0,7.766372813715906,24.05738272810891,100.648992603202,121.64348908665863,144.95644131183303,154.80912167906928,156.92741985815127,120.51949413449272,91.9388963354175,94.1172850138653,38.295804937546535,0.0,0.0,0.0,0.0,0.0,0.0,0.0,0.0,0.0,0.0,0.0,0.0,0.0,3.4411537766311504,12.78630719238939,62.92123742225009,59.19605876732162,81.73777753300982,112.203660711468,91.49318910630862,116.71866197316844,57.52260320584685,17.932474850306125,0.0315583198108133,0.0,0.0,0.0,0.0,0.0,0.0,0.0,0.0,0.0,0.0,0.0,0.0,0.0,0.0,1.6418972416639583,0.8209486208319792,9.881644852542063,64.08932756100101,44.48382945497095,102.63803136278489,111.35158607657604,73.71850585505656,8.082388317574873,37.88554678000596,0.0,0.0,0.0,0.0,0.0,0.0,0.0,0.0,0.0,0.0,0.0,0.0,0.0,11.39730881496277,71.41388389736554,135.18806056600926,171.5069313049962,178.1281261847553,176.7244294118004,177.53327347160902,133.50379736076363,110.603264821884,107.53130015646428,45.462569674856994,0.0,0.0,0.0,0.0,0.0,0.0,0.0,0.0,0.0,0.0,0.0,0.0,0.0,12.060033530989848,70.0248855199389,128.74713718434748,168.2469136379641,176.16545807597325,175.50921794620865,175.7949720475093,136.9920724642356,110.15020839501096,104.15326301945476,43.85223075300385,0.0,0.0,0.0,0.0,0.0,0.0,0.0,0.0,0.0,0.0,0.0,0.0,0.0,8.019271677953247,63.39504452516312,99.4489118388894,137.3660169387062,166.63268396435348,166.7273589237859,166.79090786915836,99.98583558142406,70.05644383974972,96.03931638206907,42.084532537847466,0.0,0.0,0.0,0.0,0.0,0.0,0.0,0.0,0.0,0.0,0.0,0.0,0.0,4.577685595571262,38.99052027913526,87.60978654657526,104.59551180255696,127.45281376635332,124.39035982745192,138.5207055991813,114.09845681736928,57.61727816527928,18.027149809738564,17.869358210684496,0.0,0.0,0.0,0.0,0.0,0.0,0.0,0.0,0.0,0.0,0.0,0.0,0.0,9.786969893109625,47.98809987122372,64.65780962334648,107.1210419989237,148.76332575366897,146.71160266021525,134.99827834139353,116.87645357222252,113.0250416380508,65.60499152342172,15.21716242932368,0.0,0.0,0.0,0.0,0.0,0.0,0.0,0.0,0.0,0.0,0.0,0.0,0.0,5.209284297538362,28.887534882166676,76.14979339774169,78.58064863467598,98.34437064551096,119.6864409526374,138.9759235548085,122.68534594616634,108.6678319754044,78.80155687335169,24.46764088564948,0.0,0.0,0.0,0.0,0.0,0.0,0.0,0.0,0.0,0.0,0.0,0.0,0.0,14.080630610383569,71.16141733887902,127.61060536540737,157.05192391439118,165.1961319543352,161.8747268706848,161.43636883934008,114.83856426279549,98.4040288391259,95.1556834273663,41.32670055663712,0.0,0.0,0.0,0.0,0.0,0.0,0.0,0.0,0.0,0.0,0.0,0.0,0.0,15.406944653939394,76.24446835717413,137.52424084351108,159.5484896254521,165.88220118090726,163.140518109124,164.56021019485976,110.94478636504212,98.07461185699113,100.90491760769515,49.31398160902872,0.0,0.0,0.0,0.0,0.0,0.0,0.0,0.0,0.0,0.0,0.0,0.0,0.0,14.996254190647988,69.70930232183078,118.96016729123784,164.4754782676965,171.19307732989142,170.45253757871436,171.89730339799846,140.20540111017772,106.69262699984814,96.51312348498212,41.48449215569119,0.0,0.0,0.0,0.0,0.0,0.0,0.0,0.0,0.0,0.0,0.0,0.0,0.0,15.94343609072322,7.13520641749964,139.3866140180999,61.05843194191044,74.76036271456424,103.11140615994708,177.9461254636546,176.9059978271503,162.3705815668903,109.046964118885,49.12463169016384,0.0,0.0,0.0,0.0,0.0,0.0,0.0,0.0,0.0,0.0,0.0,0.0,0.0,17.6484499720088,78.51753199505436,125.1105812083398,140.2218287287094,147.57794338488472,159.02799350144912,137.22811140419043,97.3042430090066,94.7947081254207,97.53552658570229,49.31398160902872,0.0,0.0,0.0,0.0,0.0,0.0,0.0,0.0,0.0,0.0,0.0,0.0,0.0,18.72186515132729,83.00054263119318,143.49092481650897,167.59975192896698,171.70276581012354,169.70248710101902,170.82345591292915,117.57116891381123,105.97845789947192,109.14163907831744,51.46081196766568,2.6202051557991712,0.0,0.0,0.0,0.0,0.0,0.0,0.0,0.0,0.0,0.0,0.0,0.0,18.94277339000298,80.97994555179946,140.71249575590488,163.01731097013658,168.4652280421348,166.8855828285908,168.41724210379232,113.90435153524524,103.35868504942358,105.28979483839488,47.420050114629085,1.7996888407180252,0.0,0.0,0.0,0.0,0.0,0.0,0.0,0.0,0.0,0.0,0.0,0.0,18.62719019189485,72.80331458054299,137.87138236143005,163.91737154337102,169.4145714709642,167.26255344331722,169.40592535594757,119.35010707848926,104.67030069745113,103.20608111937952,46.28351829568897,1.610338921853145,0.0,0.0,0.0,0.0,0.0,0.0,0.0,0.0,0.0,0.0,0.0,0.0,19.54238146640844,79.96964701210261,137.14510870003048,167.1324294123165,172.7052828463054,172.12729005744163,174.8123410758658,129.01041138660483,111.2975478577219,108.16289885843138,49.31398160902872,2.8415457002256974,0.0,0.0,0.0,0.0,0.0,0.0,0.0,0.0,0.0,0.0,0.0,0.0,17.774683251252057,68.73056210194473,137.1135503802197,159.52903586666463,167.47351864972376,163.08129222125987,163.82831655869938,122.42163943815817,96.57926626485956,77.75970001384401,47.45160843443989,2.3992969171234777,0.0,0.0,0.0,0.0,0.0,0.0,0.0,0.0,0.0,0.0,0.0,0.0,19.889955290078216,77.79125833365481,105.41646042338895,122.02262123013926,129.6312024448011,156.14364953189093,157.140546593312,126.66385577108298,125.3695323530888,99.10436415547548,46.91468469190524,2.1468303586369712,0.0,0.0,0.0,0.0,0.0,0.0,0.0,0.0,0.0,0.0,0.0,0.0,16.953734630420076,60.83752370323474,117.31827004957393,139.8876563833154,148.76159653066563,149.48268252305516,144.15105569803106,85.12878384254434,85.31121686939588,74.23511122730207,47.57784171368315,2.683754101171631,0.0,0.0,0.0,0.0,0.0,0.0,0.0,0.0,0.0,0.0,0.0,0.0,14.83846259159392,52.97647593008639,53.13426752914046,30.213416619971664,81.35907769528005,110.34128753687918,176.818672065482,176.44775373126723,155.14070018995824,108.25757381786384,48.68281521281245,3.5042704162527767,0.0,0.0,0.0,0.0,0.0,0.0,0.0,0.0,0.0,0.0,0.0,0.0,22.952409228979604,83.31612582930131,139.0710308199918,134.84048674233946,170.56926013143928,169.00517792492528,167.70609914367196,164.74134630445883,104.3655251431138,105.72728825823792,50.67185397239535,4.135869118219876,0.0,0.0,0.0,0.0,0.0,0.0,0.0,0.0,0.0,0.0,0.0,0.0,23.962707768676463,83.12677591043642,136.2926017593877,152.3518957913342,147.30256462160406,147.2991061755974,140.4427369673851,84.42109932843061,84.89663565434698,88.47137190798554,50.5456206931521,4.104310798409063,0.0,0.0,0.0,0.0,0.0,0.0,0.0,0.0,0.0,0.0,0.0,0.0,23.646692264817496,81.57998593395575,119.275750489346,129.1893859674497,146.574994042952,147.35011825419568,146.9225678666218,116.19124895715213,85.10371010899601,67.30957309895648,32.2655720191762,1.610338921853145,0.0,0.0,0.0,0.0,0.0,0.0,0.0,0.0,0.0,0.0,0.0,0.0,3.283362177577084,13.701930772653808,21.65765350523459,40.82133513391327,21.87899404966112,14.522879393485788,49.81934703175256,69.01458698024206,5.240842617349174,39.05363691875689,18.532082926711578,0.0315583198108133,0.0,0.0,0.0,0.0,0.0,0.0,0.0,0.0,0.0,0.0,0.0,0.0,13.07033207068671,40.6635435348592,65.06806778088706,60.963756982478,91.24072254782212,74.22387127778042,69.80397728126322,76.21291003736333,73.43448097675925,22.667952044931454,10.481685234698348,0.0,0.0,0.0,0.0,0.0,0.0,0.0,0.0,0.0,0.0,0.0,0.0,0.0,3.8834025597333697,16.44836920769623,61.40600576558021,88.93566828438024,145.20631403581453,143.93619973986702,141.6073686601293,139.95250224594037,113.89527311447772,66.0152496809623,31.69752226258156,1.8943638001504648,0.0,0.0,0.0,0.0,0.0,0.0,0.0,0.0,0.0,0.0,0.0,0.0,28.06658626133469,30.46631548420901,93.57690282532398,148.44774255556084,150.5647438173903,150.5893852451878,149.8596531377816,132.9236430431457,86.53161600399761,61.56379736463428,31.065923560614458,2.5570885161775445,0.0,0.0,0.0,0.0,0.0,0.0,0.0,0.0,0.0,0.0,0.0,0.0,33.46565278348877,101.31214962497992,149.68240777994004,159.18275896024736,155.43250657177057,155.75414205039036,128.94945627573736,93.19733837609256,94.3005826522185,94.72986226279576,56.82832017000895,6.188024517424408,0.0,0.0,0.0,0.0,0.0,0.0,0.0,0.0,0.0,0.0,0.0,0.0,33.05496232019736,97.68121362373304,152.58317936802987,164.11925832901005,161.90282674448895,161.83841318761483,144.8107542738023,98.02489669564532,98.6668707356324,101.51922407962893,54.776164770804414,5.903999639127088,0.0,0.0,0.0,0.0,0.0,0.0,0.0,0.0,0.0,0.0,0.0,0.0,32.64470416265679,94.93434288293976,147.7214688941613,167.62309643951198,164.99813592045365,118.45523417426485,164.71411104215633,151.4392983513256,102.8537519324506,104.76540796263436,56.0704881887986,7.040531458067201,0.0,0.0,0.0,0.0,0.0,0.0,0.0,0.0,0.0,0.0,0.0,0.0,32.17089705974376,93.26131962721584,146.77428699408603,170.40282241736855,99.22800360021373,168.9373059220445,170.01028879561213,129.4102942061254,82.65340111327423,64.31066810542754,31.729080582392367,2.999337299279764,0.0,0.0,0.0,0.0,0.0,0.0,0.0,0.0,0.0,0.0,0.0,0.0,3.567387055874404,7.89260609295916,8.650438074169513,29.29822534545808,65.13118442050867,89.31480042786085,114.88741481263962,90.64068216566584,89.6935002655906,42.52634901519885,21.34207030712646,1.3574400576158054,0.0,0.0,0.0,0.0,0.0,0.0,0.0,0.0,0.0,0.0,0.0,0.0,1.3889983774266188,5.967116278748715,22.35236884682332,34.696859561861324,35.92806634023388,38.39047989697898,26.393563005610755,29.80315846243109,25.667289344211216,14.01751397076194,6.472049395721728,0.0,0.0,0.0,0.0,0.0,0.0,0.0,0.0,0.0,0.0,0.0,0.0,0.0,0.600040382156286,0.5684820623454727,10.007878131785317,16.859059670987637,29.89783342186353,21.468303586369714,25.635731024400403,15.406944653939394,31.44505570409505,26.04642148769181,12.596957273524508,0.3155831981081331,0.0,0.0,0.0,0.0,0.0,0.0,0.0,0.0,0.0,0.0,0.0,0.0,34.191494139137475,93.29287794702664,143.64871641556306,172.76969640317955,112.36188461627287,97.27095546619246,130.35747610620064,102.41669081835836,162.08612438284217,53.38673408762696,55.09174796891255,7.387672975986146,0.0,0.0,0.0,0.0,0.0,0.0,0.0,0.0,0.0,0.0,0.0,0.0,9.502945014812305,46.66221813341873,93.79781106399966,107.53130015646428,93.86092770362129,102.38513249854752,120.34959797441532,103.30075607881196,138.53453938320794,79.30692229607551,40.6635435348592,5.651100774889748,0.0,0.0,0.0,0.0,0.0,0.0,0.0,0.0,0.0,0.0,0.0,0.0,37.88554678000596,98.91242040210558,135.28230321969085,158.5822862723402,171.2570585810147,173.4095089144125,172.07498106159082,138.8081889234853,108.23293239006634,81.45375265471249,41.48449215569119,6.061791238181155,0.0,0.0,0.0,0.0,0.0,0.0,0.0,0.0,0.0,0.0,0.0,0.0,36.654340001633415,84.95802307096527,107.27883359797777,120.69673949233426,126.60030682571052,140.80717071533732,168.47906182616143,144.53278167601664,83.47434973410621,46.09373607107326,22.88929258935798,2.4308552369342915,0.0,0.0,0.0,0.0,0.0,0.0,0.0,0.0,0.0,0.0,0.0,0.0,18.09026644936019,44.01002235205792,69.64618568220915,176.4551029290314,177.38153415306664,181.24418603676,181.3695547045016,167.2699026410814,119.00469478357368,110.46752081612242,26.425121325421568,7.766372813715906,0.0,0.0,0.0,0.0,0.0,0.0,0.0,0.0,0.0,0.0,0.0,0.0,38.04333837906003,94.9974595225614,88.05203532967748,122.84356985097124,157.63467206651416,164.3462188481974,163.41805840115882,138.4528335963005,98.98461546249467,90.99257904684394,31.50817234371668,4.514568955949636,0.0,0.0,0.0,0.0,0.0,0.0,0.0,0.0,0.0,0.0,0.0,0.0,6.472049395721728,32.865612401332484,57.39636992660359,62.54253758452032,92.12478780827573,132.91456462237818,145.66931349495675,141.40721109749364,160.3184261676858,75.42351973634214,24.530757525271103,3.220245537955457,0.0,0.0,0.0,0.0,0.0,0.0,0.0,0.0,0.0,0.0,0.0,0.0,42.58946565482048,106.67879321582149,160.69712600541556,178.62268396370834,178.7100097253766,180.83003712746196,178.61014709693418,115.2622238986119,115.32188209222684,119.3319502369543,60.08012402777522,8.966021272277645,0.0,0.0,0.0,0.0,0.0,0.0,0.0,0.0,0.0,0.0,0.0,0.4418164773513863,43.5050892350849,103.7430048619142,155.86654154560696,177.38110184731582,178.05593112436625,180.44096195171215,177.17013664090928,113.27275283327812,110.24834180045004,113.42233062306636,58.21731854743557,9.282036776136612,0.0,0.0,0.0,0.0,0.0,0.0,0.0,0.0,0.0,0.0,0.0,1.610338921853145,45.55724463428943,106.8997014544972,148.35868757088923,157.2676444840569,153.7318157479933,154.47149088766866,123.49289308872248,90.94027005099312,91.80444924690843,91.65357453986768,60.80596538342392,9.881644852542063,0.0,0.0,0.0,0.0,0.0,0.0,0.0,0.0,0.0,0.0,0.0,1.1680901387509257,39.3061034772434,75.86533621369354,114.50871497490986,128.74713718434748,160.16063456863174,137.55536685757107,160.0348335951393,97.997229127592,102.44868144392,111.88850981911068,54.83928141042604,8.934462952466832,0.0,0.0,0.0,0.0,0.0,0.0,0.0,0.0,0.0,0.0,0.0,0.0,36.369882817585264,56.13360482842023,52.21864394887604,57.71195312471171,91.6509807053627,119.52864935358332,71.22453397850065,66.77308166217264,68.60432882270148,42.58946565482048,12.91254047163264,5.272400937159988,0.0,0.0,0.0,0.0,0.0,0.0,0.0,0.0,0.0,0.0,0.0,0.0,14.585996033107415,43.59976419451734,41.32670055663712,145.05068396551465,157.10077446423531,160.517286813069,157.0177717600754,143.8730831002454,95.96150134691914,85.45171623841662,60.45882386550498,9.913203172352878,0.0,0.0,0.0,0.0,0.0,0.0,0.0,0.0,0.0,0.0,0.0,3.567387055874404,50.29272182891476,115.89771335233648,157.05451774889622,168.22140759866494,168.57589831434808,171.7451317737052,134.51841895796883,106.149218671051,104.5328274686862,91.2091642280113,49.88246367137419,10.67103515356323,0.0,0.0,0.0,0.0,0.0,0.0,0.0,0.0,0.0,0.0,0.0,3.7256109606793033,50.450945733719664,113.90867459275356,165.3063699207976,171.6193308002128,170.32630429947113,172.65816151946464,147.23339570147076,107.19842472832283,107.10850513214956,110.36549665892582,61.69003064387752,10.955060031860553,0.0,0.0,0.0,0.0,0.0,0.0,0.0,0.0,0.0,0.0,0.0,4.388335676706383,51.87150243095709,114.47715665509904,164.35962032647322,174.28276653109523,172.9127896067053,175.4041676487562,154.87656137619925,111.65895546541832,112.38868757282454,114.78495834969218,61.78470560330998,10.67103515356323,0.0,0.0,0.0,0.0,0.0,0.0,0.0,0.0,0.0,0.0,0.0,4.703918874814516,50.92432053088186,112.77214277381346,163.98048818299262,177.5090643495624,177.18656425944093,179.71598520756513,168.2629089507449,114.68120496949224,114.8532626583238,117.30184243104225,61.3744474457694,10.797268432806485,0.0,0.0,0.0,0.0,0.0,0.0,0.0,0.0,0.0,0.0,0.0,4.988376058862668,49.31398160902872,108.73094861502602,111.41470271619764,99.98583558142406,112.48811789551613,50.57717901296292,157.79289597131904,176.8087290332128,162.40213988670115,115.23455633055856,57.86974472376578,10.986618351671362,0.0,0.0,0.0,0.0,0.0,0.0,0.0,0.0,0.0,0.0,0.0,4.830584459808602,47.86186659198047,69.01458698024206,123.31694464813344,177.67377284062977,163.98092048874346,180.7362267795312,180.93379050766185,165.18835045082022,117.92565962949436,119.2441921695352,60.83752370323474,11.14440995072543,0.0,0.0,0.0,0.0,0.0,0.0,0.0,0.0,0.0,0.0,0.0,5.619542455078936,48.71437353262326,104.78486172142183,124.80061798499248,149.28641571217696,66.64684838292938,143.45936649669815,154.05993581287558,152.01556191718606,88.46229348721805,57.39636992660359,26.835379482962143,10.260776996022658,0.0,0.0,0.0,0.0,0.0,0.0,0.0,0.0,0.0,0.0,0.0,4.703918874814516,8.271738236439752,33.244312239062246,43.25262267659839,53.48140904705941,101.75396610233128,150.8154811528735,89.50415034672571,84.23174940956572,50.86120389126023,42.52634901519885,25.635731024400403,11.14440995072543,0.0,0.0,0.0,0.0,0.0,0.0,0.0,0.0,0.0,0.0,0.0,3.0308956190905776,17.395551107771464,111.69872759449495,118.8023756921838,141.3756527776828,150.02609085185233,141.50188605692608,159.2450109883673,142.2281597183256,133.1359051668047,92.18790444789737,59.41696700599731,12.09159185080066,0.0,0.0,0.0,0.0,0.0,0.0,0.0,0.0,0.0,0.0,0.0,0.3155831981081331,2.936220659658137,11.933800251746597,18.40584964746833,19.069006669246235,30.43475716439819,37.569531276147,87.60978654657526,77.19165025724936,58.50134342573289,37.853988460195154,10.828826752617296,0.0,0.0,0.0,0.0,0.0,0.0,0.0,0.0,0.0,0.0,0.0,0.0,7.640139534472652,55.8495799501229,116.84489525241172,162.7492814046201,171.8968710922476,170.75082854678917,172.35295365937648,143.34826391873403,106.18942310587846,105.73982512501208,108.72187019425851,63.58439444402799,12.312932395227188,0.0,0.0,0.0,0.0,0.0,0.0,0.0,0.0,0.0,0.0,0.0,8.303296556250565,55.881138269933714,113.30906651634812,159.4343609072322,171.8614220206793,170.8022729311383,171.5683187216145,152.11110148812017,107.76517756766498,106.55817991133908,36.18053289872038,62.63721254395276,12.817865512200202,0.0,0.0,0.0,0.0,0.0,0.0,0.0,0.0,0.0,0.0,0.0,8.52420479492626,57.74351144452253,120.41271461403694,165.02277734825114,173.33342310226587,173.13975012589268,175.79324282450597,130.60302577267382,110.33955831387584,111.43675030949017,114.78928140720052,54.01833278959406,12.849423832011016,0.0,0.0,0.0,0.0,0.0,0.0,0.0,0.0,0.0,0.0,0.0,8.966021272277645,58.21731854743557,120.25449070923204,140.60225778944246,147.2014050759091,159.18924354650986,154.9241150087909,99.04859671361798,96.8101175358044,96.12664214373734,84.13966828463828,40.032377138642936,13.10189039049752,0.0,0.0,0.0,0.0,0.0,0.0,0.0,0.0,0.0,0.0,0.0,9.345153415758238,58.43822678611126,116.02394663157972,167.8323324229152,175.6574988187444,176.55928861498217,180.443988091968,156.01698394689686,114.5147672554215,113.9717912323752,116.7912893393084,62.9843540618717,14.01751397076194,0.0,0.0,0.0,0.0,0.0,0.0,0.0,0.0,0.0,0.0,0.0,9.850086532731252,58.81692662384101,116.40264646930947,162.7181553905601,171.2436571027389,169.3350272128109,171.077651694419,146.7526717065444,105.54961059464554,104.73384964282354,106.54218459855824,65.00495114126542,14.333097168870074,0.0,0.0,0.0,0.0,0.0,0.0,0.0,0.0,0.0,0.0,0.0,10.070994771406944,60.11168234758603,117.6974021930545,158.68863348704517,165.84026752307645,163.28404361840057,164.97046835240033,130.5321276295372,100.42981358752962,100.12071497568398,99.569092837621,64.91027618183298,14.049072290572752,0.0,0.0,0.0,0.0,0.0,0.0,0.0,0.0,0.0,0.0,0.0,5.303959256970802,22.194577247769253,71.66635045585203,122.55954497267392,154.28819324931544,164.67520352458138,170.96265836469738,168.3908714529915,150.5790099071678,102.82997511615476,105.82326013492288,61.21665584671533,13.701930772653808,0.0,0.0,0.0,0.0,0.0,0.0,0.0,0.0,0.0,0.0,0.0,10.260776996022658,39.90614385939968,86.50481304744595,118.29701026945996,112.23565133702964,168.31997330985487,99.48090246445106,168.7868635207546,121.76972236590191,111.88850981911068,65.32096664512439,34.03370254008341,10.955060031860553,0.0,0.0,0.0,0.0,0.0,0.0,0.0,0.0,0.0,0.0,0.0,3.06245393890139,19.70060537121333,93.86136000937212,69.39328681797181,135.25117720563088,157.25597222878443,160.3499844874966,77.09697529781693,75.64442797501785,75.77066125426109,54.7446064509936,31.1605985200469,9.282036776136612,0.0,0.0,0.0,0.0,0.0,0.0,0.0,0.0,0.0,0.0,0.0,10.923501712049738,28.855976562355856,83.25344149543052,115.55057183441752,76.49693491566063,151.65847736699794,152.86547502332388,142.7330928352986,125.36910004733797,82.3062595953553,57.648836485090094,29.550691903944585,9.786969893109625,0.0,0.0,0.0,0.0,0.0,0.0,0.0,0.0,0.0,0.0,0.0,0.3155831981081331,29.39290030489052,6.977414818445574,10.734151793184855,41.23202559720468,83.22145086986887,107.3735085574102,84.89490643134364,76.37070163641738,86.88394519092655,70.4667019972903,39.96926049902131,11.491983774395209,0.0,0.0,0.0,0.0,0.0,0.0,0.0,0.0,0.0,0.0,0.0,0.0,35.32802595807759,37.348623037471306,35.801833060990624,140.80760302108817,118.8023756921838,69.74086064164159,88.90454227032026,58.059526948381496,50.7980872516386,47.54628339387234,12.09159185080066,6.629840994775794,0.0,0.0,0.0,0.0,0.0,0.0,0.0,0.0,0.0,0.0,0.0,3.125570578523017,9.597619974244743,23.741367224249935,89.25168378823922,174.83395636340742,174.41116133909267,176.85368883129948,176.254080754894,161.79388569527902,111.4272395829718,114.35611104486578,66.61529006311856,15.12248746989124,0.0,0.0,0.0,0.0,0.0,0.0,0.0,0.0,0.0,0.0,0.0,12.24981575560556,63.742186043082064,120.41271461403694,164.13871208779753,178.66937298479831,179.53960446122525,181.11060355975255,161.1540731840461,116.8773181837242,115.44206309095844,116.882938158485,64.27910978561671,14.333097168870074,0.0,0.0,0.0,0.0,0.0,0.0,0.0,0.0,0.0,0.0,0.0,12.186266810233104,63.01591238168252,118.77038506662215,161.39184134700426,172.70095978879712,173.34336613453502,176.58998232329128,149.39060139812773,111.6114018328267,112.90702216807335,116.7848047530459,65.03650946107624,14.83846259159392,0.0,0.0,0.0,0.0,0.0,0.0,0.0,0.0,0.0,0.0,0.0,13.038773750875896,63.58439444402799,119.97046583093471,162.2802296649662,170.49576815379768,170.1352251576029,172.302373886529,124.45347646707354,106.84436631839054,107.71113934881085,111.34250765580856,66.52061510368613,15.406944653939394,0.0,0.0,0.0,0.0,0.0,0.0,0.0,0.0,0.0,0.0,0.0,13.291672615113232,63.23725292610905,118.3916852288924,137.3266771153804,145.23441390961867,154.49742923271864,145.94771839849324,93.32659779559162,93.43683576205406,93.65558247197558,83.29580745901215,64.43690138467079,15.754086171858338,0.0,0.0,0.0,0.0,0.0,0.0,0.0,0.0,0.0,0.0,0.0,13.417905894356489,62.88967910243927,114.22469009661252,164.86455344344623,176.1373582021691,175.87538091716425,178.88033819120483,160.14593617310342,116.07366179292552,116.91060572653832,117.00268685146578,64.75248458277892,15.84876113129078,0.0,0.0,0.0,0.0,0.0,0.0,0.0,0.0,0.0,0.0,0.0,12.24981575560556,53.03959256970802,100.0805105408565,143.01755001934677,102.73270632221734,110.37284585668998,184.88290354152184,183.743345582326,171.7788516222702,126.85320568994788,115.2976729701802,56.70165458501487,16.195902649209724,0.0,0.0,0.0,0.0,0.0,0.0,0.0,0.0,0.0,0.0,0.0,14.870020911404731,56.25983810766349,93.00885306872932,127.38969712673168,131.30465800627587,159.465919227043,177.80865223488968,168.7479560031796,134.55602955829133,77.9806082525197,56.51230466614999,40.47419361599432,11.68133369326009,0.0,0.0,0.0,0.0,0.0,0.0,0.0,0.0,0.0,0.0,0.0,3.5042704162527767,40.47419361599432,75.0448198986124,100.52275932395872,142.82776779473107,151.09950603117082,169.31600575977424,176.83293815525948,176.25840381240235,152.867636552078,111.7618442341166,61.24821416652614,16.922176310609263,0.0,0.0,0.0,0.0,0.0,0.0,0.0,0.0,0.0,0.0,0.0,11.239517215908704,35.32802595807759,73.43448097675925,105.44758643744896,97.87056354259792,101.37483395885069,151.44664754908973,144.62745663544908,163.66533729063534,132.0620576817354,113.40374147578056,63.07902902130416,17.52221669276555,0.0,0.0,0.0,0.0,0.0,0.0,0.0,0.0,0.0,0.0,0.0,15.21716242932368,62.82656246281765,117.63428555343286,161.77054118473404,151.00526337748923,177.84626283521217,181.2921719751025,179.99698394560664,117.93473805026184,80.25410419615075,114.9189731324504,63.458161164784734,17.332434468149838,0.0,0.0,0.0,0.0,0.0,0.0,0.0,0.0,0.0,0.0,0.0,14.775345951972293,62.258512706222994,115.99238831176892,95.3450333462312,151.00223723723337,164.3946370922907,167.51415539030208,153.85113213522322,103.05477410658794,102.31293743815844,92.755954204492,50.22960518929314,13.165007030119147,0.0,0.0,0.0,0.0,0.0,0.0,0.0,0.0,0.0,0.0,0.0,9.06112853746092,2.3992969171234777,33.90746926084015,66.77308166217264,151.00483107173838,102.8589396014606,89.59882530615816,138.12384891991653,139.73418784176968,72.77175626073216,49.282423289217896,35.138676039212704,18.311174688035884,0.0,0.0,0.0,0.0,0.0,0.0,0.0,0.0,0.0,0.0,0.0,16.44836920769623,70.40358535766866,130.7046176241196,176.79878600094366,183.0494948522389,182.9189385154873,184.70911662968695,156.33040561625083,122.48432377202896,121.5263342281829,123.64895546477322,69.10926193967448,18.532082926711578,0.0,0.0,0.0,0.0,0.0,0.0,0.0,0.0,0.0,0.0,0.0,16.48035983325788,67.72026356224788,121.70703803203112,164.45429528590566,183.12125760687715,181.87924318473375,184.29972308364808,175.63069586219274,119.2143630727277,119.06305605993612,119.46510040821089,67.5624719631938,18.46896628708995,0.0,0.0,0.0,0.0,0.0,0.0,0.0,0.0,0.0,0.0,0.0,9.345153415758238,66.6784067027402,120.25449070923204,162.71772308480925,182.1494342790044,182.24583846144023,184.24827869929896,150.08920749147396,153.34360518374524,121.58037244703704,118.96016729123784,66.86775662160508,18.21649972860344,0.0,0.0,0.0,0.0,0.0,0.0,0.0,0.0,0.0,0.0,0.0,16.44836920769623,64.53157634410323,116.56043806836357,157.6982210118866,183.76928392737597,183.7688516216251,186.39035369467675,178.53535820204007,137.82037028283173,38.35892157716816,60.36414890607254,66.33083287907041,19.479264826786807,0.0,0.0,0.0,0.0,0.0,0.0,0.0,0.0,0.0,0.0,0.0,17.206201188906583,52.755567691410704,115.2665469561202,155.89809986541778,183.7757685136384,185.84478383712545,177.01969423961938,134.77737010271784,52.15552730925441,140.4289031833584,91.11448926857886,65.41564160455684,19.858396970267403,0.0,0.0,0.0,0.0,0.0,0.0,0.0,0.0,0.0,0.0,0.0,17.04840958985252,63.39504452516312,114.88741481263962,146.37570109181797,153.36651738853936,165.91332719496725,111.88807751335985,157.8365588521532,96.16987271882066,91.2169457315263,79.4845999596679,55.94425490955534,19.38458986735437,0.0,0.0,0.0,0.0,0.0,0.0,0.0,0.0,0.0,0.0,0.0,16.827501351176824,64.65780962334648,119.14951721010272,162.11811500840383,182.8981878394473,181.41408219683743,184.03904271589573,179.28713790273878,120.2432507597104,117.75014349465611,112.94506507414668,66.61529006311856,19.54238146640844,0.0,0.0,0.0,0.0,0.0,0.0,0.0,0.0,0.0,0.0,0.0,17.016851270041705,63.93153596194694,114.98208977207204,160.47621776673986,182.92888154775645,184.9685000801868,186.56284368925915,182.5294310339867,117.84870920584608,110.91928032574296,109.38243338153144,66.0152496809623,19.70060537121333,0.0,0.0,0.0,0.0,0.0,0.0,0.0,0.0,0.0,0.0,0.0,10.607918513941604,61.81626392312078,104.78486172142183,140.52357814279085,183.1441698116713,184.6282754542812,168.9688642418553,186.3964059751884,157.91912925056232,132.689765631945,102.48023976373084,64.97339282145461,19.95307192969984,0.0,0.0,0.0,0.0,0.0,0.0,0.0,0.0,0.0,0.0,0.0,17.427109427582277,54.04989110940488,113.15127491729405,152.64672831340232,179.89279825965588,170.77244383433083,166.65040850013762,165.98595456110718,107.65796574145836,113.40244455852805,107.24813988966862,54.36547430751301,20.80557887034264,0.0,0.0,0.0,0.0,0.0,0.0,0.0,0.0,0.0,0.0,0.0,17.900916530495312,62.13227942697976,111.19379447752198,150.8154811528735,169.7980266719531,168.6104827744147,173.56686820771571,160.99974003099868,106.56466449760154,106.44880655637832,103.67988822229256,49.66155543269849,18.81654011075973,0.0,0.0,0.0,0.0,0.0,0.0,0.0,0.0,0.0,0.0,0.0,15.374954028377743,63.3634862053523,99.4173535190786,129.6627607646119,162.7808397244309,140.30223759836431,146.23779555730223,155.74074057211453,138.62921434264038,137.30290029908457,101.1854840399858,39.49545339610828,19.353031547543555,0.0,0.0,0.0,0.0,0.0,0.0,0.0,0.0,0.0,0.0,0.0,14.712229312350663,60.55349882493741,98.0914717812736,133.70395492339935,147.64754461076885,158.77639155446428,162.36582620363117,121.41998701347796,97.7983684822088,98.07201802248612,86.46071786086098,68.41454659808576,19.41614818716518,0.0,0.0,0.0,0.0,0.0,0.0,0.0,0.0,0.0,0.0,0.0,16.16434432939891,49.56688047326605,98.2181373662677,133.0727885271831,147.61641859670883,159.6012309270537,161.3710906709643,118.91304596439706,96.31383053384806,96.4750805789088,87.95087578398254,60.774407063613104,19.76372201083496,0.0,0.0,0.0,0.0,0.0,0.0,0.0,0.0,0.0,0.0,0.0,16.195902649209724,61.05843194191044,88.05203532967748,130.1676938815849,147.090302497945,126.63186514552136,67.27801477914566,122.30664610843657,153.46724462848348,123.41161960756588,96.51312348498212,60.39570722588334,20.047746889132284,0.0,0.0,0.0,0.0,0.0,0.0,0.0,0.0,0.0,0.0,0.0,16.732826391744386,59.51164196542975,105.16356155915165,132.0304993619246,162.24391598189624,169.22176310609265,181.10498358499177,165.243253281176,146.4267131704163,117.12892013070903,92.37725436676224,58.88004326346264,7.987713358142432,0.0,0.0,0.0,0.0,0.0,0.0,0.0,0.0,0.0,0.0,0.0,15.280279068945305,63.77374436289288,113.75131529945034,153.3410113492402,179.0640681353089,177.27475463261086,178.27338091703524,176.68984495173373,119.78241282932234,112.98008183996416,114.88741481263962,67.37268973857809,21.626095185423782,0.0,0.0,0.0,0.0,0.0,0.0,0.0,0.0,0.0,0.0,0.0,15.69096953223671,63.39504452516312,112.1094180577864,151.57331313408383,175.66873876826605,174.84995167618823,94.65031800464246,107.91043229994489,133.95642148188583,151.32084657559733,112.23565133702964,66.10992464039472,20.079305208943097,0.0,0.0,0.0,0.0,0.0,0.0,0.0,0.0,0.0,0.0,0.0,18.37429132765751,34.66530124205051,109.64700450104128,148.35263529037755,175.46641967687617,148.41575192999915,138.50298106339713,86.63147863244005,20.931812149585888,70.43514367747947,77.50723345535751,54.7130481311828,20.48956336648367,0.0,0.0,0.0,0.0,0.0,0.0,0.0,0.0,0.0,0.0,0.0,16.89061799079845,65.03650946107624,117.2551534099523,141.18630285881792,147.68688443409462,158.65059058097188,157.22225238021943,98.85362681999229,97.07598557256676,97.13348223742754,85.78675319531224,70.90895078039252,21.87899404966112,0.0,0.0,0.0,0.0,0.0,0.0,0.0,0.0,0.0,0.0,0.0,17.680008291819618,62.79500414300683,111.2884694369544,149.99453253204152,177.20904415848426,175.64928500947855,174.77127202953662,173.06928428850685,119.3124964781668,106.4686926209166,83.50590805391701,56.9545534492522,22.667952044931454,0.0,0.0,0.0,0.0,0.0,0.0,0.0,0.0,0.0,0.0,0.0,17.269317828528212,63.615952763838806,72.07704091914344,152.393829449165,99.07021200115965,179.0601773835514,181.92290606556796,151.82577969257034,179.35587451712124,152.6147376878407,115.77148007309324,68.85679538118798,22.35236884682332,0.0,0.0,0.0,0.0,0.0,0.0,0.0,0.0,0.0,0.0,0.0,17.269317828528212,62.9527957420609,111.98318477854312,151.57331313408383,177.17705353292257,145.290613657227,182.7840591212274,181.94625057611293,161.8721330361798,118.31949016850328,114.12958283142926,68.2567549990317,22.983967548790417,0.0,0.0,0.0,0.0,0.0,0.0,0.0,0.0,0.0,0.0,0.0,17.837799890873683,45.051879211565584,110.84622065385216,148.9526756725338,175.50446258294951,178.6996343873566,181.1352449875501,180.18546925296985,129.31950999845046,109.9310293793386,77.91749161289806,64.91027618183298,21.089603748639952,0.0,0.0,0.0,0.0,0.0,0.0,0.0,0.0,0.0,0.0,0.0,17.837799890873683,62.005613841985664,109.61501387547962,148.73219973960897,176.16675499322574,104.6901867619894,139.7973044813913,30.6872237228847,168.9373059220445,151.13106435098163,117.7289605128653,70.08800215956055,21.72077014485622,0.0,0.0,0.0,0.0,0.0,0.0,0.0,0.0,0.0,0.0,0.0,17.45866774739309,62.258512706222994,111.66716927468414,150.87859779249513,178.75626644071576,134.65113682347456,186.59958967807995,160.3184261676858,76.14979339774169,8.113946637385686,12.40760735465963,11.460425454584398,6.724515954208234,0.0,0.0,0.0,0.0,0.0,0.0,0.0,0.0,0.0,0.0,0.0,17.45866774739309,62.32162934584463,110.2777385915067,139.4531891037282,146.76650549057106,158.93504776502,86.66303695225085,129.6627607646119,139.67150350789888,99.51332539576354,88.90065151856278,59.41696700599731,24.18361600735216,0.0,0.0,0.0,0.0,0.0,0.0,0.0,0.0,0.0,0.0,0.0,9.944761492163693,60.963756982478,108.35224877729624,119.6864409526374,175.94584675455008,123.6645184718032,77.85437497327645,117.57116891381123,150.15232413109558,99.41778582482942,27.21451162644273,1.7365722010963984,22.38392716663413,0.0,0.0,0.0,0.0,0.0,0.0,0.0,0.0,0.0,0.0,0.0,17.45866774739309,61.59535568444509,110.56219577555486,150.75236451325185,176.0405217139825,138.2500821991598,98.62839552380828,145.70087181476757,152.23603785011093,152.29915448973256,111.69872759449495,29.613808543566208,13.4494642141673,0.0,0.0,0.0,0.0,0.0,0.0,0.0,0.0,0.0,0.0,0.0,17.427109427582277,61.78470560330998,110.12037929820347,149.64695870837173,177.46151071697074,129.53652748536868,45.051879211565584,172.69447520253462,156.46701423351405,114.31936505604496,13.54413917359974,23.741367224249935,17.17464286909577,0.0,0.0,0.0,0.0,0.0,0.0,0.0,0.0,0.0,0.0,0.0,10.765710112995668,38.958961959324455,32.51847088341354,35.391142597699215,58.88004326346264,83.78993293221436,162.08655668859302,142.19616909276397,43.06327275773352,8.208621596818126,36.68589832144423,26.61447124428645,16.03811105015566,0.0,0.0,0.0,0.0,0.0,0.0,0.0,0.0,0.0,0.0,0.0,16.98529295023089,61.69003064387752,110.34128753687918,150.62613123400862,175.47247195738782,157.41376382783844,186.18111771127357,184.49555758877543,166.9668563097474,118.71375301326302,116.97112853165495,70.56137695672274,23.14175914784449,0.2209082386756931,0.0,0.0,0.0,0.0,0.0,0.0,0.0,0.0,0.0,0.0,14.93313755102636,61.69003064387752,112.2352190312788,153.3410113492402,180.93941048242272,145.89022173363244,181.3760392907641,139.98622209450537,164.64407751052138,129.6130456032661,117.8841582774144,69.86709392088484,25.604172704589587,0.2209082386756931,0.0,0.0,0.0,0.0,0.0,0.0,0.0,0.0,0.0,0.0,13.89128069151869,61.27977248633696,109.29943067737148,137.8082657218084,152.24598088238008,164.01982800631845,162.40213988670115,122.82541300943625,107.06311302831207,103.77845393348248,94.00272398989452,71.1298590190682,23.110200828033676,0.2524665584865065,0.0,0.0,0.0,0.0,0.0,0.0,0.0,0.0,0.0,0.0,16.575034792690317,63.52127780440637,113.84555795313196,153.18321975018614,163.66490498488452,172.37845969867567,184.8133023156377,184.40563799260215,166.1493661349221,121.90200792565682,119.81267423188068,72.89798953997543,22.699510364742267,0.4733747971621996,0.0,0.0,0.0,0.0,0.0,0.0,0.0,0.0,0.0,0.0,14.522879393485788,51.30302036861162,92.50348764600548,134.272004679994,158.01380420999476,171.99975986094586,181.69248710037388,186.8831822506264,177.49306903678155,147.4076149190565,116.11862159101216,70.65648422190601,23.425784026141805,0.1893499188648798,0.0,0.0,0.0,0.0,0.0,0.0,0.0,0.0,0.0,0.0,15.406944653939394,56.92299512944139,91.84033062422758,88.62008508627211,75.23416981747727,122.81201153116042,167.76921578329353,122.81201153116042,155.64563330693124,125.8744654700618,98.15458842089524,24.56231584508192,20.11086352875391,0.0,0.0,0.0,0.0,0.0,0.0,0.0,0.0,0.0,0.0,0.0,14.93313755102636,47.13559293058093,111.3200277567652,54.55482422637788,20.205538488186345,14.806904271783104,60.55349882493741,113.84555795313196,186.14437172245272,139.57639624271562,90.0726324090712,64.18400252043345,25.951314222508536,0.504933116973013,0.0,0.0,0.0,0.0,0.0,0.0,0.0,0.0,0.0,0.0,0.0,14.20686388962682,56.89143680963057,87.26264502865631,157.4453221476493,182.92369387874643,179.4591955915703,172.9296495309878,153.9094934115857,84.48464827380306,104.97421164028675,54.42859094713464,23.331109066709367,0.2524665584865065,0.0,0.0,0.0,0.0,0.0,0.0,0.0,0.0,0.0,0.0,14.049072290572752,60.80596538342392,92.34569604695142,148.88955903291222,175.72493851587436,187.43004902543024,175.18844707909057,166.31710076624532,179.16652459825636,121.55486640773788,113.83647953236446,71.0983006992574,24.08894104791972,0.4733747971621996,0.0,0.0,0.0,0.0,0.0,0.0,0.0,0.0,0.0,0.0,16.322135928452976,60.20635730701847,108.95185685370171,147.5252020832831,155.50902468966802,170.2523800160787,165.0681694520886,109.20345880068656,97.43955470901736,97.89347574739205,83.56988930504032,72.42418243706238,24.12049936773053,0.7578319812103526,0.0,0.0,0.0,0.0,0.0,0.0,0.0,0.0,0.0,0.0,15.21716242932368,59.92190012297033,109.70968883491206,129.1578276476389,98.75462880305152,39.43233675648665,207.64380132288244,196.05671028330397,188.7957028923119,132.3149565459727,39.3061034772434,56.51230466614999,24.341407606406225,0.7578319812103526,0.0,0.0,0.0,0.0,0.0,0.0,0.0,0.0,0.0,0.0,15.817202811479966,59.10138380788917,108.25757381786384,148.9526756725338,179.45054947655368,196.3411674673521,201.9291516026203,31.760638902203187,23.20487578746611,71.50855885679798,92.15634612808654,50.73497061201698,17.111526229474144,0.0,0.0,0.0,0.0,0.0,0.0,0.0,0.0,0.0,0.0,0.0,13.575697493410551,59.19605876732162,108.6993902952152,149.67894933393336,178.8820674142082,42.02141589822585,37.63264791576863,35.95962466004469,66.86775662160508,86.88394519092655,92.724828190432,70.59293527653355,24.30984928659541,0.0,0.0,0.0,0.0,0.0,0.0,0.0,0.0,0.0,0.0,0.0,9.660736613866373,54.23924102826976,103.90079646096828,148.8580007131014,125.71667387100776,54.55482422637788,146.45870379597793,151.44707985484058,119.81267423188068,122.9698031302145,59.480083645618926,71.63479213604123,13.670372452842994,0.0,0.0,0.0,0.0,0.0,0.0,0.0,0.0,0.0,0.0,0.0,16.953734630420076,34.03370254008341,87.35731998808875,116.08706327120132,6.598282674964981,15.21716242932368,21.72077014485622,46.72533477304036,99.19644528040293,148.95310797828466,95.62905822452848,3.283362177577084,24.59387416489273,0.0,0.0,0.0,0.0,0.0,0.0,0.0,0.0,0.0,0.0,0.0,14.775345951972293,58.50134342573289,106.67879321582149,146.74272867427524,173.7678903818531,180.06269441973325,184.9308894798644,185.0229706047918,126.07462303269752,124.56371443353598,114.19313177680172,69.89865224069565,27.08827834719948,0.0,0.0,0.0,0.0,0.0,0.0,0.0,0.0,0.0,0.0,0.0,15.56473625299346,56.29139642747428,102.2588992193043,144.8172388600648,153.89220118155237,152.0151296114352,165.93796862276474,139.70219721620805,106.00526085602358,105.92485198636862,99.27685415005786,68.4776632377074,23.45734234595262,0.0,0.0,0.0,0.0,0.0,0.0,0.0,0.0,0.0,0.0,0.0,15.343395708566932,56.76477122463648,103.23763943919036,142.32283467775804,152.45694608878662,174.99909716022563,168.68483936355798,166.5375766991702,149.58427437450092,130.2628011467682,100.45964268433713,68.13052171978845,25.604172704589587,0.0,0.0,0.0,0.0,0.0,0.0,0.0,0.0,0.0,0.0,0.0,14.712229312350663,55.6597977255072,101.02769244093174,139.16570577942423,156.91358607412462,141.40721109749364,117.98142707135182,174.30178798413192,28.887534882166676,45.65191959372187,51.30302036861162,70.97206742001414,23.836042183682377,0.0,0.0,0.0,0.0,0.0,0.0,0.0,0.0,0.0,0.0,0.0,14.806904271783104,55.94425490955534,101.94331602119615,140.30223759836431,168.40038217950982,185.1967575166267,125.52689164639204,117.82363547229777,176.16718729897653,149.3629338300744,114.1300151371801,71.03518405963577,27.056287721637837,0.1893499188648798,0.0,0.0,0.0,0.0,0.0,0.0,0.0,0.0,0.0,0.0,13.954397331140315,56.82832017000895,104.87953668085429,145.00658877892968,173.61009878279904,179.5599228315144,176.9561452942469,167.32739930594218,102.63803136278489,133.16746348661553,106.0476268196052,66.8993149414159,26.488237965043197,0.1893499188648798,0.0,0.0,0.0,0.0,0.0,0.0,0.0,0.0,0.0,0.0,13.417905894356489,53.86054119054,84.98958139077608,128.74713718434748,159.0867870835624,153.183652055937,157.95068757037313,115.0452064116937,140.0497710398778,117.98142707135182,103.04828952032548,66.80463998198346,9.218920136514985,0.0,0.0,0.0,0.0,0.0,0.0,0.0,0.0,0.0,0.0,0.0,3.4095954568203366,18.09026644936019,50.73497061201698,58.75380998421939,120.09669911017798,167.51674922480706,156.30922263446,155.45628338806637,141.34409445787202,108.51004037635032,75.42351973634214,57.52260320584685,22.131460608147627,0.0,0.0,0.0,0.0,0.0,0.0,0.0,0.0,0.0,0.0,0.0,13.828164051897058,35.32802595807759,54.7130481311828,94.71343464426408,143.83806633442794,144.97503045911887,135.37697817912328,161.4376657565926,161.96896952436643,124.86416693036496,98.13167621610108,51.30302036861162,18.21649972860344,0.0,0.0,0.0,0.0,0.0,0.0,0.0,0.0,0.0,0.0,0.0,11.80756697250334,53.98677446978325,99.25956192002452,138.12384891991653,126.12693202854832,146.58493707522118,63.742186043082064,181.25023831727168,160.88647592428043,116.84489525241172,29.929391741674348,13.196565349929962,0.0,0.0,0.0,0.0,0.0,0.0,0.0,0.0,0.0,0.0,0.0,0.0,13.73348909246462,54.04989110940488,99.3546691852078,139.3234973784783,170.01072110136298,104.62707012236778,170.95790300143824,172.63135856291296,110.05726265858183,137.4926825237003,89.63038362596897,59.89034180315951,17.206201188906583,0.0,0.0,0.0,0.0,0.0,0.0,0.0,0.0,0.0,0.0,0.0,12.91254047163264,54.807723090615234,103.36387271843358,126.97943896919112,147.31121073662072,155.55139065324963,126.94788064938032,120.60206453290182,150.08920749147396,152.33114511529422,103.07984784013628,67.21489813952401,26.29888804617832,0.1893499188648798,0.0,0.0,0.0,0.0,0.0,0.0,0.0,0.0,0.0,0.0,13.291672615113232,54.20768270845895,101.62773282308802,142.16504307870397,171.36816115897878,188.8588195319335,171.81040994208098,190.2979653764568,178.0611187933762,151.24346384619824,116.71866197316844,71.19297565868983,24.152057687541348,0.0,0.0,0.0,0.0,0.0,0.0,0.0,0.0,0.0,0.0,0.0,13.07033207068671,53.98677446978325,88.80986731088782,122.55911266692308,114.19313177680172,46.97780133152687,31.065923560614458,76.49693491566063,150.4052229953329,110.21505425763591,90.70379880528743,70.71960086152762,19.447706506975997,0.0,0.0,0.0,0.0,0.0,0.0,0.0,0.0,0.0,0.0,0.0,11.239517215908704,38.04333837906003,103.45854767786604,58.84848494365184,139.51284729734317,138.6918986765112,32.64470416265679,47.48316675425071,90.609123845855,87.95736037024504,70.18267711899298,39.11675355837851,7.640139534472652,0.0,0.0,0.0,0.0,0.0,0.0,0.0,0.0,0.0,0.0,0.0,5.777334054133002,40.22172705750782,14.585996033107415,39.14831187818933,46.97780133152687,89.12545050899597,93.10352802816176,103.36387271843358,109.23631403774986,110.43596249631162,13.89128069151869,34.94932612034783,21.75232846466703,0.0,0.0,0.0,0.0,0.0,0.0,0.0,0.0,0.0,0.0,0.0,4.230544077652316,31.98154714087888,48.27212474952105,80.56968739425889,183.077594726043,154.8251169918501,185.39518585625905,133.32525508566957,83.6952579727819,146.30091219692386,118.96016729123784,72.10859923895426,25.130797907427382,0.0,0.0,0.0,0.0,0.0,0.0,0.0,0.0,0.0,0.0,0.0,10.57636019413079,55.24953956796662,107.68909175551836,154.9513502710934,186.32421091479927,81.95868577168551,170.26318765984948,185.51406993773813,183.52416656665355,159.27656930817813,121.32790588855052,55.02863132929092,23.047084188412047,0.0,0.0,0.0,0.0,0.0,0.0,0.0,0.0,0.0,0.0,0.0,11.491983774395209,54.36547430751301,104.27949629869802,145.63775517514594,174.62039732249588,186.6782693247316,137.9976156406733,186.51874850267416,120.91764773100996,155.20381682957986,117.0658034910874,70.94050910020333,25.57261438477878,0.0,0.0,0.0,0.0,0.0,0.0,0.0,0.0,0.0,0.0,0.0,12.123150170611476,52.91335929046476,86.22078816914863,129.53652748536868,152.6147376878407,170.57920316370843,188.61067603095535,186.47378870458755,86.91550351073735,113.59309139464546,115.01364809188289,69.7724189614524,22.25769388739088,0.0,0.0,0.0,0.0,0.0,0.0,0.0,0.0,0.0,0.0,0.0,11.68133369326009,52.02929403001116,99.54401910407267,140.49158751722922,169.8529295023089,187.3120295554528,187.83122876220332,186.7361982953432,168.34158859739654,123.77648566126898,115.99238831176892,69.9933272001281,24.846340723379235,0.0,0.0,0.0,0.0,0.0,0.0,0.0,0.0,0.0,0.0,0.0,10.418568595076724,52.40799386774091,102.73270632221734,144.6590149552599,129.12626932782808,69.64618568220915,189.71175877832712,187.79448277338253,186.90133909216144,161.07625814889616,122.71733657172798,72.42418243706238,23.14175914784449,0.0,0.0,0.0,0.0,0.0,0.0,0.0,0.0,0.0,0.0,0.0,9.376711735569051,52.18708562906523,95.81840814339338,100.17561780603975,46.69377645322954,119.14951721010272,171.3997194787896,155.23537514939068,128.39999566642854,127.73727095040148,86.88394519092655,58.75380998421939,22.920850909168795,0.0,0.0,0.0,0.0,0.0,0.0,0.0,0.0,0.0,0.0,0.0,8.745113033601951,42.68414061425292,88.36761852778561,132.59898142427005,146.4271454761671,170.8632280420058,188.35302180345883,166.00108526238637,152.867636552078,141.34409445787202,115.83459671271486,60.4903821853158,21.78431909022868,0.0,0.0,0.0,0.0,0.0,0.0,0.0,0.0,0.0,0.0,0.0,9.06112853746092,51.997735710200345,103.58521326286012,145.3848563109086,174.9039898950424,178.58507336338585,138.53410707745712,25.099239587616577,86.72615359187249,148.44774255556084,122.43287938767982,63.426602844973935,22.38392716663413,0.0,0.0,0.0,0.0,0.0,0.0,0.0,0.0,0.0,0.0,0.0,10.134543716779405,41.16890895758304,85.33672290869504,112.0143107926031,154.00416837101812,97.46030538505734,80.50657075463725,114.03490787199682,126.47407354646728,107.68909175551836,71.57167549641959,32.32868865879782,13.10189039049752,0.0,0.0,0.0,0.0,0.0,0.0,0.0,0.0,0.0,0.0,0.0,4.988376058862668,35.42270091751003,38.89584531970282,41.011117358528985,117.98142707135182,100.648992603202,102.8904979212714,154.60377644742357,145.54308021571347,138.75544762188363,81.83245249244226,34.191494139137475,22.320810527012505,0.0,0.0,0.0,0.0,0.0,0.0,0.0,0.0,0.0,0.0,0.0,9.408270055379866,50.89276221107105,74.85503767399668,74.72880439475342,176.92501928018694,144.78524823450314,143.8065080146171,187.5904344589893,180.3972990708781,155.61450729287128,82.46405119440935,52.37643554793011,7.261439696742894,0.0,0.0,0.0,0.0,0.0,0.0,0.0,0.0,0.0,0.0,0.0,9.218920136514985,50.92432053088186,100.74366756263444,142.54374291643373,172.18910977981074,187.358286270792,189.6797681527655,189.56174868278808,70.56137695672274,154.63576707298523,114.98208977207204,68.69900378213393,22.28925220720169,0.0,0.0,0.0,0.0,0.0,0.0,0.0,0.0,0.0,0.0,0.0,8.52420479492626,50.3873967883472,100.83834252206688,142.2597180381364,153.5485181096401,166.39318657839195,149.7105076537442,146.96795997045928,104.00541445266984,105.37322984830566,99.23275896347288,68.60432882270148,19.19523994848949,0.0,0.0,0.0,0.0,0.0,0.0,0.0,0.0,0.0,0.0,0.0,7.955722732580785,39.71636163478397,100.58587596358036,142.60685955605535,172.75759184215627,186.78159039918063,189.4899859281498,189.1337659894633,164.3449219309449,112.45655957570534,114.6033899343423,67.05710654046996,21.94211068928275,0.0,0.0,0.0,0.0,0.0,0.0,0.0,0.0,0.0,0.0,0.0,4.767035514436142,26.709146203718888,86.06299657009457,80.97994555179946,124.26412654820868,154.47754316818032,65.85745808190822,60.42726554569417,77.85437497327645,133.57772164415607,117.66584387324367,68.35142995846414,22.35236884682332,0.0,0.0,0.0,0.0,0.0,0.0,0.0,0.0,0.0,0.0,0.0,8.271738236439752,49.25086496940709,100.61743428339118,143.83849864017876,172.75759184215627,151.28928825578652,176.9890005313102,137
...